  38
# Step             100000000
 Ar          1.655280        2.455170        1.812710
 Ar         -0.177073        1.757050        1.675100
 Ar          0.611251        2.803810        1.464040
 Ar          1.568900        0.394567        1.223610
 Ar          2.515930        0.958888        1.049200
 Ar         -0.352477       -0.347184        0.887390
 Ar         -0.931605        0.549387        0.478946
 Ar          1.718350       -0.521754        1.787180
 Ar          1.492380        2.471980        0.723842
 Ar          1.649890       -0.531468        0.572467
 Ar          0.687540        1.003990        1.450000
 Ar          2.172870        1.523630        2.160020
 Ar          2.501080        0.406288        2.008740
 Ar          1.093930        1.892840       -0.245967
 Ar          0.587066        1.016040       -0.528356
 Ar          2.110660        0.457547        0.256390
 Ar          0.589118       -0.088683        1.904890
 Ar          1.167850        0.995238        0.401597
 Ar          0.635805        1.895190        0.913836
 Ar          1.417720        0.800816        2.285490
 Ar         -0.761132        1.554530        0.742110
 Ar         -0.026429        0.227368       -0.075263
 Ar         -0.336533        0.652368        1.406340
 Ar          1.104420        0.100376       -0.193498
 Ar          0.492589       -0.701805        0.226785
 Ar          0.008212        2.020620       -0.062882
 Ar          1.559880        1.525270        1.218960
 Ar          2.055480        1.645720        0.200371
 Ar          0.880920        1.806200        2.118090
 Ar          1.687810        0.989998       -0.629668
 Ar          0.135982        1.096940        0.464585
 Ar          2.474970        2.109790        1.173550
 Ar          0.559269        2.865310        0.334755
 Ar          0.816853       -0.942916        1.250160
 Ar          2.495050       -0.176036        1.096260
 Ar          0.257059        0.877728        2.435740
 Ar          0.587856        0.158809        0.843895
 Ar         -0.510821        1.182730       -0.394817
