  38
# Step              20000000
Ar       -7.1737560E-001        1.3757092E+000        3.1412582E+000
Ar        9.5056226E-001        9.0404503E-001        2.3360407E+000
Ar       -5.8088848E-001        2.4178410E+000        2.7913260E+000
Ar        4.4370012E-001        2.3407916E+000        1.1890587E+000
Ar       -1.3585486E+000        1.7793640E+000        2.3317178E+000
Ar       -1.2304276E+000        1.4182646E+000        1.2970991E+000
Ar       -5.8469728E-001        1.0208663E+000        2.1011878E+000
Ar       -4.5539737E-001        3.4627841E+000        2.4512847E+000
Ar       -1.2284498E+000        2.8171555E+000        1.9884907E+000
Ar        1.2146170E+000        2.9800410E+000        1.6461730E+000
Ar        1.0874035E+000        3.3467404E+000        2.6830541E+000
Ar       -3.2495903E-001        3.0971285E+000        1.4140432E+000
Ar        1.0843441E+000        5.3907742E-001        1.3000183E+000
Ar       -1.0995855E+000        2.4581566E+000        9.5333512E-001
Ar        5.7419671E-001        1.9862982E+000        1.4549459E-001
Ar        1.0806213E+000        1.9421098E+000        1.9899379E+000
Ar       -4.4943773E-001        2.0588409E+000        1.7593504E+000
Ar        9.5377777E-001        2.3012636E+000        3.0238595E+000
Ar        1.8584468E+000        2.5822345E+000        2.4535189E+000
Ar        3.1660483E-001        2.6963263E+000        2.2168188E+000
Ar        5.7465801E-001        3.3841179E+000        8.3733198E-001
Ar        1.3464122E+000        2.6271794E+000        6.0699409E-001
Ar       -4.5778047E-001        6.5635235E-001        1.0647489E+000
Ar        4.4460860E-001        9.3857397E-001        4.9089000E-001
Ar        5.4250801E-002        2.0182534E+000        3.6035620E+000
Ar        1.9899915E+000        2.2237087E+000        1.4181720E+000
Ar        1.8636062E-001        3.0637662E+000        3.2567874E+000
Ar        4.4571467E-001        3.7456642E+000        1.8771828E+000
Ar        1.2136740E+000        1.5840410E+000        9.5698823E-001
Ar        3.1454152E-001        1.3055683E+000        1.5294393E+000
Ar        8.2244701E-001        1.2583335E+000        3.3781235E+000
Ar        1.8542579E-001        1.6620752E+000        2.5600903E+000
Ar        1.8225472E-001        2.5816518E-001        1.8699103E+000
Ar       -1.9759331E-001        2.7413035E+000        3.7398894E-001
Ar        1.7261862E+000        1.5414070E+000        2.8001307E+000
Ar        5.1652871E-002        6.1813674E-001        2.9120086E+000
Ar        1.8582876E+000        1.1832212E+000        1.7639997E+000
Ar       -3.2607041E-001        1.6995894E+000        7.2515624E-001
