96
# CELL(abcABC): 7.1392 14.3163 9.589999999999998 90.0 107.32999999999998 90.0 positions{angstrom} cell{angstrom}
N      -0.373911000000000      6.949830000000000      6.163919999999999
N      -0.144726000000000     14.087999999999999      7.576390000000000
N       4.784150000000000      7.366680000000000      2.992810000000000
N       4.615470000000000      0.212151000000000      1.630280000000000
O      -1.107800000000000      6.287580000000000      6.924859999999999
O       0.570946000000000     13.384800000000000      6.791320000000000
O       5.576020000000000      8.003950000000000      2.192640000000000
O       3.966839999999999      0.992449000000000      2.482590000000000
O      -0.160059000000000      8.191480000000000      6.384879999999999
O      -0.521621000000000      0.940986000000000      7.174079999999999
O       4.543500000000000      6.118980000000000      2.755710000000000
O       4.878180000000000     13.330399999999999      1.937690000000000
O       0.046223600000000      6.496550000000000      5.014300000000000
O      -0.509446000000000     13.653300000000000      8.736940000000001
O       4.255949999999999      7.977380000000000      3.985330000000000
O       4.893169999999999      0.671707000000000      0.481373000000000
N       2.988829999999999      5.661090000000000      5.243270000000000
N       3.497599999999999     12.750700000000000      8.512449999999999
N       1.289860000000000      8.584390000000001      3.923290000000000
N       0.965936000000000      1.578970000000000      0.698971000000000
H       3.653399999999999      6.377520000000000      4.823690000000000
H       2.862410000000000     13.439700000000000      8.944509999999999
H       0.790165000000000      7.680799999999999      4.371570000000000
H       1.381450000000000      0.747602000000000      0.165405000000000
N       2.715919999999999      4.507160000000000      4.575000000000000
N       3.696829999999999     11.571899999999999      9.151219999999999
N       1.528900000000000      9.744990000000000      4.614490000000000
N       0.717599000000000      2.759260000000000      0.069965700000000
N       2.053660000000000      3.678150000000000      5.321380000000000
N       4.341739999999999     10.782299999999999      8.429410000000001
N       2.173130000000000     10.606000000000000      3.845110000000000
N       0.034097200000000      3.566240000000000      0.834574000000000
C       1.332840000000000      3.848580000000000      7.762239999999999
C       4.883939999999999     10.860900000000001      5.935010000000000
C       3.066770000000000     10.498200000000001      1.525020000000000
C      -0.942396000000000      3.314240000000000      3.140200000000000
H       0.915674000000000      2.830030000000000      7.881519999999999
H       5.335010000000000      9.846650000000000      5.773590000000000
H       3.553319999999999     11.486800000000001      1.373100000000000
H       5.819890000000000      4.358530000000000      3.309720000000000
N       1.482709999999999      4.640420000000000      8.845789999999999
N       4.799210000000000     11.703600000000000      4.899660000000000
N       2.997420000000000      9.702900000000000      0.428025000000000
N      -0.974134000000000      2.407710000000000      4.110450000000000
H       4.067919999999999      4.165680000000000      0.598142000000000
H       5.258189999999999     11.321400000000001      4.026300000000000
H       0.466314999999999     10.108900000000000      8.692940000000000
H      -1.469770000000000      2.789150000000000      4.983870000000000
C       2.023720000000000      5.932010000000000      8.821429999999999
C       4.365960000000000     13.037900000000000      4.974340000000000
C       2.404170000000000      8.506090000000000      0.341114000000000
C      -0.370438000000000      1.153230000000000      4.120340000000000
H       4.967300000000000      6.466580000000000      0.646736000000000
H       4.457420000000000     13.579200000000000      4.032490000000000
H      -0.449233000000000      8.173819999999999      8.490200000000000
H      -0.461912000000000      0.594870000000000      5.056070000000000
C       2.507649999999999      6.435890000000000      7.654300000000000
C       3.826670000000000     13.546200000000001      6.141139999999999
C       1.744540000000000      7.936150000000000      1.431730000000000
C       0.310782000000000      0.673728000000000      2.999570000000000
C       3.065089999999999      7.832849999999999      7.528430000000000
C       3.229540000000000      0.579293000000000      6.209200000000000
C       1.087010000000000      6.651200000000000      1.311280000000000
C       1.126010000000000     13.768100000000000      3.078440000000000
H       2.738870000000000      8.603669999999999      8.253380000000000
H       3.405170000000000      1.194190000000000      5.296100000000000
H       0.936517000000000      6.452770000000000      0.270950000000000
H       1.067800000000000     13.233300000000000      4.016440000000000
H       2.602869999999998      8.209020000000001      6.526439999999999
H       3.567229999999999      1.081690000000000      7.094669999999999
H       1.795540000000000      5.799080000000000      1.635820000000000
H       0.826028000000000     13.095000000000001      2.306850000000000
H       4.178559999999998      7.931110000000000      7.472640000000000
H       2.120330000000000      0.439667000000000      6.394620000000000
H       0.232691000000000      6.610380000000000      1.969110000000000
H       2.195390000000000     13.911600000000000      2.751290000000000
C       1.925260000000000      4.248420000000000      6.564840000000000
C       4.428789999999999     11.336200000000000      7.146130000000000
C       2.454619999999999     10.012900000000000      2.667339999999999
C      -0.215681000000000      2.909880000000000      2.041199999999999
C       2.510999999999999      5.522060000000000      6.525220000000000
C       3.916150000000000     12.666399999999999      7.219540000000000
C       1.841260000000000      8.706220000000000      2.627219999999999
C       0.367175000000000      1.642730000000000      1.928780000000000
O       3.070679999999999      3.678080000000000      1.845340000000000
O       5.690009999999999     10.767799999999999      2.675360000000000
O       1.173369999999999     10.795999999999999      7.362580000000000
O      -1.978980000000000      3.617340000000000      6.391889999999999
H       3.134790000000000      4.184870000000000      2.654660000000000
H       5.979599999999999     10.989699999999999      1.757010000000000
H       0.915371000000000     10.409900000000000      6.555409999999999
H      -1.808900000000000      3.073670000000000      7.205530000000000
H       3.322789999999999      2.708480000000000      2.075330000000000
H       5.620660000000000      9.761609999999999      2.624150000000000
H       0.920470000000000     11.731400000000001      7.267769999999999
H      -1.779160000000000      4.577970000000000      6.564289999999999
