38
Properties=species:S:1:pos:R:3 pbc="F F F"
Ar       6.48747003       7.87090133      14.30688168
Ar      12.15845875       6.26724316      11.56914218
Ar       6.95152624      11.41414945      13.11711220
Ar      10.43512748      11.15218149       7.66940338
Ar       4.30748183       9.24332765      11.55444432
Ar       4.74309323       8.01558969       8.03674074
Ar       6.93857632       6.66443547      10.77064232
Ar       7.37819601      14.96695599      11.96097178
Ar       4.74981775      12.77181875      10.38747218
Ar      13.05624487      13.32562945       9.22359200
Ar      12.62371897      14.57240741      12.74898774
Ar       7.82168637      13.72372695       8.43435068
Ar      12.61331701       5.02635328       8.04666602
Ar       5.18795637      11.55122249       6.86794320
Ar      10.87881588       9.94690393       4.12128540
Ar      12.60065949       9.79666337      10.39239266
Ar       7.39845879      10.19354911       9.60839516
Ar      12.16939149      11.01778629      13.90772610
Ar      15.24526619      11.97308735      11.96856806
Ar      10.00300349      12.36099947      11.16378772
Ar      10.88038430      14.69949091       6.47353253
Ar      13.50434855      12.12590001       5.69038370
Ar       7.37009347       5.42508804       7.24675006
Ar      10.43821631       6.38464155       5.29562980
Ar       9.11099979      10.05555161      15.87871460
Ar      15.69251817      10.75409963       8.44838860
Ar       9.56017318      13.61029513      14.69968096
Ar      10.44197695      15.92874833      10.00902532
Ar      13.05303867       8.57922945       6.88036378
Ar       9.99598824       7.63242227       8.82669742
Ar      11.72286690       7.47182395      15.11222370
Ar       9.55699476       8.84454573      12.33091082
Ar       9.54621312       4.07125167       9.98429882
Ar       8.25472982      12.51392195       4.89816619
Ar      14.79558015       8.43427385      13.14704818
Ar       9.10216683       5.29515497      13.52743304
Ar      15.24472491       7.21644213       9.62420278
Ar       7.81790768       8.97209401       6.09213501
